# generated using pymatgen
data_Ac2CuRh
_symmetry_space_group_name_H-M   'P 1'
_cell_length_a   7.46896853
_cell_length_b   7.46896853
_cell_length_c   7.46896853
_cell_angle_alpha   90.00000000
_cell_angle_beta   90.00000000
_cell_angle_gamma   90.00000000
_symmetry_Int_Tables_number   1
_chemical_formula_structural   Ac2CuRh
_chemical_formula_sum   'Ac8 Cu4 Rh4'
_cell_volume   416.66007637
_cell_formula_units_Z   4
loop_
 _symmetry_equiv_pos_site_id
 _symmetry_equiv_pos_as_xyz
  1  'x, y, z'
loop_
 _atom_site_type_symbol
 _atom_site_label
 _atom_site_symmetry_multiplicity
 _atom_site_fract_x
 _atom_site_fract_y
 _atom_site_fract_z
 _atom_site_occupancy
  Ac  Ac0  1  0.25000000  0.25000000  0.25000000  1
  Ac  Ac1  1  0.25000000  0.25000000  0.75000000  1
  Ac  Ac2  1  0.25000000  0.75000000  0.75000000  1
  Ac  Ac3  1  0.25000000  0.75000000  0.25000000  1
  Ac  Ac4  1  0.75000000  0.25000000  0.75000000  1
  Ac  Ac5  1  0.75000000  0.25000000  0.25000000  1
  Ac  Ac6  1  0.75000000  0.75000000  0.25000000  1
  Ac  Ac7  1  0.75000000  0.75000000  0.75000000  1
  Cu  Cu8  1  0.50000000  0.50000000  0.50000000  1
  Cu  Cu9  1  0.50000000  0.00000000  0.00000000  1
  Cu  Cu10  1  0.00000000  0.50000000  -0.00000000  1
  Cu  Cu11  1  0.00000000  -0.00000000  0.50000000  1
  Rh  Rh12  1  -0.00000000  0.00000000  0.00000000  1
  Rh  Rh13  1  0.00000000  0.50000000  0.50000000  1
  Rh  Rh14  1  0.50000000  0.00000000  0.50000000  1
  Rh  Rh15  1  0.50000000  0.50000000  -0.00000000  1
