# generated using pymatgen
data_Ac2InHg
_symmetry_space_group_name_H-M   'P 1'
_cell_length_a   8.66122787
_cell_length_b   8.66122787
_cell_length_c   8.66122787
_cell_angle_alpha   90.00000000
_cell_angle_beta   90.00000000
_cell_angle_gamma   90.00000000
_symmetry_Int_Tables_number   1
_chemical_formula_structural   Ac2InHg
_chemical_formula_sum   'Ac8 In4 Hg4'
_cell_volume   649.73818932
_cell_formula_units_Z   4
loop_
 _symmetry_equiv_pos_site_id
 _symmetry_equiv_pos_as_xyz
  1  'x, y, z'
loop_
 _atom_site_type_symbol
 _atom_site_label
 _atom_site_symmetry_multiplicity
 _atom_site_fract_x
 _atom_site_fract_y
 _atom_site_fract_z
 _atom_site_occupancy
  Ac  Ac0  1  0.25000000  0.25000000  0.25000000  1
  Ac  Ac1  1  0.25000000  0.25000000  0.75000000  1
  Ac  Ac2  1  0.25000000  0.75000000  0.75000000  1
  Ac  Ac3  1  0.25000000  0.75000000  0.25000000  1
  Ac  Ac4  1  0.75000000  0.25000000  0.75000000  1
  Ac  Ac5  1  0.75000000  0.25000000  0.25000000  1
  Ac  Ac6  1  0.75000000  0.75000000  0.25000000  1
  Ac  Ac7  1  0.75000000  0.75000000  0.75000000  1
  In  In8  1  0.50000000  0.50000000  0.50000000  1
  In  In9  1  0.50000000  0.00000000  -0.00000000  1
  In  In10  1  -0.00000000  0.50000000  -0.00000000  1
  In  In11  1  -0.00000000  0.00000000  0.50000000  1
  Hg  Hg12  1  -0.00000000  0.00000000  -0.00000000  1
  Hg  Hg13  1  -0.00000000  0.50000000  0.50000000  1
  Hg  Hg14  1  0.50000000  0.00000000  0.50000000  1
  Hg  Hg15  1  0.50000000  0.50000000  -0.00000000  1
