# generated using pymatgen
data_KAcBi2
_symmetry_space_group_name_H-M   'P 1'
_cell_length_a   8.37465343
_cell_length_b   8.37465343
_cell_length_c   8.37465343
_cell_angle_alpha   90.00000000
_cell_angle_beta   90.00000000
_cell_angle_gamma   90.00000000
_symmetry_Int_Tables_number   1
_chemical_formula_structural   KAcBi2
_chemical_formula_sum   'K4 Ac4 Bi8'
_cell_volume   587.35481173
_cell_formula_units_Z   4
loop_
 _symmetry_equiv_pos_site_id
 _symmetry_equiv_pos_as_xyz
  1  'x, y, z'
loop_
 _atom_site_type_symbol
 _atom_site_label
 _atom_site_symmetry_multiplicity
 _atom_site_fract_x
 _atom_site_fract_y
 _atom_site_fract_z
 _atom_site_occupancy
  K  K0  1  0.00000000  0.00000000  0.00000000  1
  K  K1  1  0.00000000  0.50000000  0.50000000  1
  K  K2  1  0.50000000  0.00000000  0.50000000  1
  K  K3  1  0.50000000  0.50000000  0.00000000  1
  Ac  Ac4  1  0.50000000  0.50000000  0.50000000  1
  Ac  Ac5  1  0.50000000  0.00000000  0.00000000  1
  Ac  Ac6  1  0.00000000  0.50000000  0.00000000  1
  Ac  Ac7  1  0.00000000  0.00000000  0.50000000  1
  Bi  Bi8  1  0.25000000  0.25000000  0.25000000  1
  Bi  Bi9  1  0.25000000  0.25000000  0.75000000  1
  Bi  Bi10  1  0.25000000  0.75000000  0.75000000  1
  Bi  Bi11  1  0.25000000  0.75000000  0.25000000  1
  Bi  Bi12  1  0.75000000  0.25000000  0.75000000  1
  Bi  Bi13  1  0.75000000  0.25000000  0.25000000  1
  Bi  Bi14  1  0.75000000  0.75000000  0.25000000  1
  Bi  Bi15  1  0.75000000  0.75000000  0.75000000  1
