# generated using pymatgen
data_CaPaRu2
_symmetry_space_group_name_H-M   'P 1'
_cell_length_a   6.79504935
_cell_length_b   6.79504935
_cell_length_c   6.79504935
_cell_angle_alpha   90.00000000
_cell_angle_beta   90.00000000
_cell_angle_gamma   90.00000000
_symmetry_Int_Tables_number   1
_chemical_formula_structural   CaPaRu2
_chemical_formula_sum   'Ca4 Pa4 Ru8'
_cell_volume   313.74574516
_cell_formula_units_Z   4
loop_
 _symmetry_equiv_pos_site_id
 _symmetry_equiv_pos_as_xyz
  1  'x, y, z'
loop_
 _atom_site_type_symbol
 _atom_site_label
 _atom_site_symmetry_multiplicity
 _atom_site_fract_x
 _atom_site_fract_y
 _atom_site_fract_z
 _atom_site_occupancy
  Ca  Ca0  1  0.00000000  0.00000000  0.00000000  1
  Ca  Ca1  1  0.00000000  0.50000000  0.50000000  1
  Ca  Ca2  1  0.50000000  0.00000000  0.50000000  1
  Ca  Ca3  1  0.50000000  0.50000000  0.00000000  1
  Pa  Pa4  1  0.50000000  0.50000000  0.50000000  1
  Pa  Pa5  1  0.50000000  0.00000000  0.00000000  1
  Pa  Pa6  1  0.00000000  0.50000000  0.00000000  1
  Pa  Pa7  1  0.00000000  0.00000000  0.50000000  1
  Ru  Ru8  1  0.25000000  0.25000000  0.25000000  1
  Ru  Ru9  1  0.25000000  0.25000000  0.75000000  1
  Ru  Ru10  1  0.25000000  0.75000000  0.75000000  1
  Ru  Ru11  1  0.25000000  0.75000000  0.25000000  1
  Ru  Ru12  1  0.75000000  0.25000000  0.75000000  1
  Ru  Ru13  1  0.75000000  0.25000000  0.25000000  1
  Ru  Ru14  1  0.75000000  0.75000000  0.25000000  1
  Ru  Ru15  1  0.75000000  0.75000000  0.75000000  1
